$DATA1 SOURCE='PrimeSim HSPICE' VERSION='U-2023.03-SP2 linux6' PARAM_COUNT=0
.TITLE '* fo4manual.sp'
 tpdr             tpdf             tpd              trise           
 tfall            temper           alter#          
  3.124e-11        7.466e-11        5.295e-11       -5.010e-10      
  6.189e-10         70.0000        1               
