$DATA1 SOURCE='PrimeSim HSPICE' VERSION='U-2023.03-SP2 linux6' PARAM_COUNT=0
.TITLE '* fo4.sp'
 tpdr             tpdf             tpd              trise           
 tfall            temper           alter#          
  5.676e-11        5.937e-11        5.807e-11        7.488e-11      
  6.085e-11         70.0000        1               
