$DATA1 SOURCE='PrimeSim HSPICE' VERSION='U-2023.03-SP2 linux6' PARAM_COUNT=2
.TITLE '* fo4opt.sp'
 index            p1               bestratio        tpdr            
                  tpdf             tpd              diff            
                  temper           alter#          
 2                  16.0000           4.0000         5.932e-11      
                   5.730e-11        5.831e-11        2.022e-12      
                    70.0000        1               
