$DATA1 SOURCE='PrimeSim HSPICE' VERSION='U-2023.03-SP2 linux6' PARAM_COUNT=0
.TITLE '* fo4manual.sp'
 tpdr             tpdf             tpd              trise           
 tfall            temper           alter#          
  5.950e-11        4.858e-11        5.404e-11        6.874e-11      
  4.626e-11         70.0000        1               
