$DATA1 SOURCE='PrimeSim HSPICE' VERSION='U-2023.03-SP2 linux6' PARAM_COUNT=0
.TITLE '* fo4manual.sp'
 tpdr             tpdf             tpd              trise           
 tfall            temper           alter#          
  5.837e-10        6.452e-10        6.145e-10          failed       
    failed          70.0000        1               
