$DATA1 SOURCE='PrimeSim HSPICE' VERSION='U-2023.03-SP2 linux6' PARAM_COUNT=2
.TITLE '* fo4opt.sp'
 index            p1               bestratio        tpdr            
                  tpdf             average          diff            
                  temper           alter#          
 5                  19.2341           4.8085         5.019e-11      
                   5.019e-11        5.019e-11       -6.175e-19      
                    70.0000        1               
